# File generated by Flopy version 3.3.2 on 02/04/2021 at 22:23:41.
BEGIN options
  READASARRAYS
END options

BEGIN period  1
  recharge
    CONSTANT       0.00200000
END period  1

